Version 4
SHEET 1 1548 680
WIRE 576 16 576 -32
WIRE 112 80 0 80
WIRE 416 80 336 80
WIRE 0 96 0 80
WIRE 112 144 -192 144
WIRE 384 144 336 144
WIRE 848 160 848 96
WIRE -192 176 -192 144
WIRE 384 176 384 144
WIRE 576 176 576 96
WIRE 576 176 384 176
WIRE 112 208 48 208
WIRE 384 208 384 176
WIRE 384 208 336 208
WIRE 576 224 576 176
WIRE 112 272 48 272
WIRE 432 272 336 272
WIRE -192 288 -192 256
WIRE 848 304 848 240
WIRE 576 320 576 288
WIRE 432 336 432 272
WIRE 432 432 432 400
FLAG 0 96 0
FLAG -192 288 0
FLAG 416 80 Vcc
FLAG 48 272 Vcc
FLAG 48 208 Vout
FLAG 576 320 0
FLAG 432 432 0
FLAG 848 304 0
FLAG 848 96 Vcc
FLAG 576 -32 Vcc
FLAG -192 144 Trigger_Pulse
FLAG 576 176 Vc
SYMBOL Misc\\NE555 224 176 R0
SYMATTR InstName U1
SYMBOL voltage -192 160 R0
WINDOW 3 -362 99 Left 2
WINDOW 123 0 0 Left 0
WINDOW 39 0 0 Left 0
SYMATTR Value PULSE(5 0 0.05m 0 0 0.01m 1.5m 3)
SYMATTR InstName V1
SYMBOL res 560 0 R0
SYMATTR InstName R1
SYMATTR Value 10k
SYMBOL cap 560 224 R0
SYMATTR InstName C1
SYMATTR Value 0.1µ
SYMBOL voltage 848 144 R0
SYMATTR InstName V3
SYMATTR Value 5
SYMBOL cap 416 336 R0
SYMATTR InstName C2
SYMATTR Value 0.01µ
TEXT -176 400 Left 2 !.tran 0 3m 30u
