Version 4
SHEET 1 880 680
WIRE 336 -48 224 -48
WIRE 224 -32 224 -48
WIRE 336 -16 336 -48
WIRE 224 96 224 48
WIRE 160 112 160 80
WIRE 192 112 160 112
WIRE 448 128 256 128
WIRE -96 144 -192 144
WIRE 48 144 -16 144
WIRE 192 144 48 144
WIRE -192 192 -192 144
WIRE 448 192 448 128
WIRE 224 208 224 160
WIRE -192 320 -192 272
WIRE 224 320 224 288
WIRE 320 320 320 272
WIRE 320 320 224 320
WIRE 48 416 48 144
WIRE 80 416 48 416
WIRE 304 416 160 416
WIRE 448 416 448 272
WIRE 448 416 304 416
WIRE 304 480 304 416
WIRE 304 608 304 560
FLAG 160 80 0
FLAG 336 -16 0
FLAG 320 272 0
FLAG 304 608 0
FLAG -192 320 0
FLAG 448 128 Vo
FLAG 48 144 Vi
SYMBOL OpAmps\\LT1001 224 192 M180
SYMATTR InstName U1
SYMBOL voltage 224 -48 R0
SYMATTR InstName V1
SYMATTR Value 9
SYMBOL voltage 224 192 R0
SYMATTR InstName V2
SYMATTR Value 9
SYMBOL voltage -192 176 R0
WINDOW 3 -85 101 Left 2
WINDOW 123 0 0 Left 0
WINDOW 39 0 0 Left 0
SYMATTR Value SINE(0 10 1k)
SYMATTR InstName V3
SYMBOL res 432 176 R0
SYMATTR InstName R1
SYMATTR Value 1k
SYMBOL res 176 400 R90
WINDOW 0 0 56 VBottom 2
WINDOW 3 32 56 VTop 2
SYMATTR InstName R2
SYMATTR Value 47k
SYMBOL res 288 464 R0
SYMATTR InstName R3
SYMATTR Value 100
SYMBOL res 0 128 R90
WINDOW 0 0 56 VBottom 2
WINDOW 3 32 56 VTop 2
SYMATTR InstName R4
SYMATTR Value 4.7k
TEXT -144 40 Left 2 !.tran 0.01
