Version 4
SHEET 1 880 680
WIRE 304 -144 224 -144
WIRE 224 -112 224 -144
WIRE 304 -112 304 -144
WIRE 224 32 224 -32
WIRE 112 48 16 48
WIRE 192 48 112 48
WIRE 16 64 16 48
WIRE 592 64 256 64
WIRE 192 80 144 80
WIRE 592 112 592 64
WIRE 224 144 224 96
WIRE 16 176 16 144
WIRE 592 240 592 192
WIRE 592 240 528 240
WIRE 224 256 224 224
WIRE 288 256 288 240
WIRE 288 256 224 256
WIRE 592 272 592 240
WIRE 144 304 144 80
WIRE 528 304 528 240
WIRE 528 304 144 304
WIRE 592 384 592 352
FLAG 288 240 0
FLAG 304 -112 0
FLAG 16 176 0
FLAG 592 384 0
FLAG 592 64 Vo
FLAG 112 48 Vi
SYMBOL OpAmps\\LT1001 224 128 M180
SYMATTR InstName U1
SYMBOL voltage 224 -128 R0
SYMATTR InstName V1
SYMATTR Value 9
SYMBOL voltage 224 128 R0
SYMATTR InstName V2
SYMATTR Value 9
SYMBOL res 576 96 R0
SYMATTR InstName R1
SYMATTR Value 4.7k
SYMBOL res 576 256 R0
SYMATTR InstName R2
SYMATTR Value 100
SYMBOL voltage 16 48 R0
WINDOW 3 -89 105 Left 2
WINDOW 123 0 0 Left 0
WINDOW 39 0 0 Left 0
SYMATTR Value SINE(0 1 1k)
SYMATTR InstName V3
TEXT 0 -48 Left 2 !.tran 0.01
